# generated using pymatgen
data_Sc3Tc
_symmetry_space_group_name_H-M   'P 1'
_cell_length_a   6.24644462
_cell_length_b   6.24644462
_cell_length_c   4.74481507
_cell_angle_alpha   90.00000000
_cell_angle_beta   90.00000000
_cell_angle_gamma   120.00000000
_symmetry_Int_Tables_number   1
_chemical_formula_structural   Sc3Tc
_chemical_formula_sum   'Sc6 Tc2'
_cell_volume   160.33033893
_cell_formula_units_Z   2
loop_
 _symmetry_equiv_pos_site_id
 _symmetry_equiv_pos_as_xyz
  1  'x, y, z'
loop_
 _atom_site_type_symbol
 _atom_site_label
 _atom_site_symmetry_multiplicity
 _atom_site_fract_x
 _atom_site_fract_y
 _atom_site_fract_z
 _atom_site_occupancy
  Sc  Sc0  1  0.17189802  0.34379605  0.25000000  1
  Sc  Sc1  1  0.65620395  0.82810198  0.25000000  1
  Sc  Sc2  1  0.17189802  0.82810198  0.25000000  1
  Sc  Sc3  1  0.82810198  0.65620395  0.75000000  1
  Sc  Sc4  1  0.34379605  0.17189802  0.75000000  1
  Sc  Sc5  1  0.82810198  0.17189802  0.75000000  1
  Tc  Tc6  1  0.33333333  0.66666667  0.75000000  1
  Tc  Tc7  1  0.66666667  0.33333333  0.25000000  1
